data_image0
_chemical_formula_structural       C162MoS2MoS2MoS2MoS2MoS2MoS2MoS2MoS2MoS2MoS2MoS2MoS2MoS2MoS2MoS2MoS2MoS2MoS2MoS2MoS2MoS2MoS2MoS2MoS2MoS2MoS2MoS2MoS2
_chemical_formula_sum              "C162 Mo28 S56"
_cell_length_a       22.14
_cell_length_b       22.14
_cell_length_c       15
_cell_angle_alpha    90
_cell_angle_beta     90
_cell_angle_gamma    120

_space_group_name_H-M_alt    "P 1"
_space_group_IT_number       1

loop_
  _space_group_symop_operation_xyz
  'x, y, z'

loop_
  _atom_site_type_symbol
  _atom_site_label
  _atom_site_symmetry_multiplicity
  _atom_site_fract_x
  _atom_site_fract_y
  _atom_site_fract_z
  _atom_site_occupancy
  C   C1        1.0  0.00000  0.00000  0.33333  1.0000
  C   C2        1.0  0.07407  0.03704  0.33333  1.0000
  C   C3        1.0  0.00000  0.11111  0.33333  1.0000
  C   C4        1.0  0.07407  0.14815  0.33333  1.0000
  C   C5        1.0  0.00000  0.22222  0.33333  1.0000
  C   C6        1.0  0.07407  0.25926  0.33333  1.0000
  C   C7        1.0  0.00000  0.33333  0.33333  1.0000
  C   C8        1.0  0.07407  0.37037  0.33333  1.0000
  C   C9        1.0  0.00000  0.44444  0.33333  1.0000
  C   C10       1.0  0.07407  0.48148  0.33333  1.0000
  C   C11       1.0  0.00000  0.55556  0.33333  1.0000
  C   C12       1.0  0.07407  0.59259  0.33333  1.0000
  C   C13       1.0  0.00000  0.66667  0.33333  1.0000
  C   C14       1.0  0.07407  0.70370  0.33333  1.0000
  C   C15       1.0  0.00000  0.77778  0.33333  1.0000
  C   C16       1.0  0.07407  0.81481  0.33333  1.0000
  C   C17       1.0  0.00000  0.88889  0.33333  1.0000
  C   C18       1.0  0.07407  0.92593  0.33333  1.0000
  C   C19       1.0  0.11111  0.00000  0.33333  1.0000
  C   C20       1.0  0.18519  0.03704  0.33333  1.0000
  C   C21       1.0  0.11111  0.11111  0.33333  1.0000
  C   C22       1.0  0.18519  0.14815  0.33333  1.0000
  C   C23       1.0  0.11111  0.22222  0.33333  1.0000
  C   C24       1.0  0.18519  0.25926  0.33333  1.0000
  C   C25       1.0  0.11111  0.33333  0.33333  1.0000
  C   C26       1.0  0.18519  0.37037  0.33333  1.0000
  C   C27       1.0  0.11111  0.44444  0.33333  1.0000
  C   C28       1.0  0.18519  0.48148  0.33333  1.0000
  C   C29       1.0  0.11111  0.55556  0.33333  1.0000
  C   C30       1.0  0.18519  0.59259  0.33333  1.0000
  C   C31       1.0  0.11111  0.66667  0.33333  1.0000
  C   C32       1.0  0.18519  0.70370  0.33333  1.0000
  C   C33       1.0  0.11111  0.77778  0.33333  1.0000
  C   C34       1.0  0.18519  0.81481  0.33333  1.0000
  C   C35       1.0  0.11111  0.88889  0.33333  1.0000
  C   C36       1.0  0.18519  0.92593  0.33333  1.0000
  C   C37       1.0  0.22222  0.00000  0.33333  1.0000
  C   C38       1.0  0.29630  0.03704  0.33333  1.0000
  C   C39       1.0  0.22222  0.11111  0.33333  1.0000
  C   C40       1.0  0.29630  0.14815  0.33333  1.0000
  C   C41       1.0  0.22222  0.22222  0.33333  1.0000
  C   C42       1.0  0.29630  0.25926  0.33333  1.0000
  C   C43       1.0  0.22222  0.33333  0.33333  1.0000
  C   C44       1.0  0.29630  0.37037  0.33333  1.0000
  C   C45       1.0  0.22222  0.44444  0.33333  1.0000
  C   C46       1.0  0.29630  0.48148  0.33333  1.0000
  C   C47       1.0  0.22222  0.55556  0.33333  1.0000
  C   C48       1.0  0.29630  0.59259  0.33333  1.0000
  C   C49       1.0  0.22222  0.66667  0.33333  1.0000
  C   C50       1.0  0.29630  0.70370  0.33333  1.0000
  C   C51       1.0  0.22222  0.77778  0.33333  1.0000
  C   C52       1.0  0.29630  0.81481  0.33333  1.0000
  C   C53       1.0  0.22222  0.88889  0.33333  1.0000
  C   C54       1.0  0.29630  0.92593  0.33333  1.0000
  C   C55       1.0  0.33333  0.00000  0.33333  1.0000
  C   C56       1.0  0.40741  0.03704  0.33333  1.0000
  C   C57       1.0  0.33333  0.11111  0.33333  1.0000
  C   C58       1.0  0.40741  0.14815  0.33333  1.0000
  C   C59       1.0  0.33333  0.22222  0.33333  1.0000
  C   C60       1.0  0.40741  0.25926  0.33333  1.0000
  C   C61       1.0  0.33333  0.33333  0.33333  1.0000
  C   C62       1.0  0.40741  0.37037  0.33333  1.0000
  C   C63       1.0  0.33333  0.44444  0.33333  1.0000
  C   C64       1.0  0.40741  0.48148  0.33333  1.0000
  C   C65       1.0  0.33333  0.55556  0.33333  1.0000
  C   C66       1.0  0.40741  0.59259  0.33333  1.0000
  C   C67       1.0  0.33333  0.66667  0.33333  1.0000
  C   C68       1.0  0.40741  0.70370  0.33333  1.0000
  C   C69       1.0  0.33333  0.77778  0.33333  1.0000
  C   C70       1.0  0.40741  0.81481  0.33333  1.0000
  C   C71       1.0  0.33333  0.88889  0.33333  1.0000
  C   C72       1.0  0.40741  0.92593  0.33333  1.0000
  C   C73       1.0  0.44444  0.00000  0.33333  1.0000
  C   C74       1.0  0.51852  0.03704  0.33333  1.0000
  C   C75       1.0  0.44444  0.11111  0.33333  1.0000
  C   C76       1.0  0.51852  0.14815  0.33333  1.0000
  C   C77       1.0  0.44444  0.22222  0.33333  1.0000
  C   C78       1.0  0.51852  0.25926  0.33333  1.0000
  C   C79       1.0  0.44444  0.33333  0.33333  1.0000
  C   C80       1.0  0.51852  0.37037  0.33333  1.0000
  C   C81       1.0  0.44444  0.44444  0.33333  1.0000
  C   C82       1.0  0.51852  0.48148  0.33333  1.0000
  C   C83       1.0  0.44444  0.55556  0.33333  1.0000
  C   C84       1.0  0.51852  0.59259  0.33333  1.0000
  C   C85       1.0  0.44444  0.66667  0.33333  1.0000
  C   C86       1.0  0.51852  0.70370  0.33333  1.0000
  C   C87       1.0  0.44444  0.77778  0.33333  1.0000
  C   C88       1.0  0.51852  0.81481  0.33333  1.0000
  C   C89       1.0  0.44444  0.88889  0.33333  1.0000
  C   C90       1.0  0.51852  0.92593  0.33333  1.0000
  C   C91       1.0  0.55556  0.00000  0.33333  1.0000
  C   C92       1.0  0.62963  0.03704  0.33333  1.0000
  C   C93       1.0  0.55556  0.11111  0.33333  1.0000
  C   C94       1.0  0.62963  0.14815  0.33333  1.0000
  C   C95       1.0  0.55556  0.22222  0.33333  1.0000
  C   C96       1.0  0.62963  0.25926  0.33333  1.0000
  C   C97       1.0  0.55556  0.33333  0.33333  1.0000
  C   C98       1.0  0.62963  0.37037  0.33333  1.0000
  C   C99       1.0  0.55556  0.44444  0.33333  1.0000
  C   C100      1.0  0.62963  0.48148  0.33333  1.0000
  C   C101      1.0  0.55556  0.55556  0.33333  1.0000
  C   C102      1.0  0.62963  0.59259  0.33333  1.0000
  C   C103      1.0  0.55556  0.66667  0.33333  1.0000
  C   C104      1.0  0.62963  0.70370  0.33333  1.0000
  C   C105      1.0  0.55556  0.77778  0.33333  1.0000
  C   C106      1.0  0.62963  0.81481  0.33333  1.0000
  C   C107      1.0  0.55556  0.88889  0.33333  1.0000
  C   C108      1.0  0.62963  0.92593  0.33333  1.0000
  C   C109      1.0  0.66667  0.00000  0.33333  1.0000
  C   C110      1.0  0.74074  0.03704  0.33333  1.0000
  C   C111      1.0  0.66667  0.11111  0.33333  1.0000
  C   C112      1.0  0.74074  0.14815  0.33333  1.0000
  C   C113      1.0  0.66667  0.22222  0.33333  1.0000
  C   C114      1.0  0.74074  0.25926  0.33333  1.0000
  C   C115      1.0  0.66667  0.33333  0.33333  1.0000
  C   C116      1.0  0.74074  0.37037  0.33333  1.0000
  C   C117      1.0  0.66667  0.44444  0.33333  1.0000
  C   C118      1.0  0.74074  0.48148  0.33333  1.0000
  C   C119      1.0  0.66667  0.55556  0.33333  1.0000
  C   C120      1.0  0.74074  0.59259  0.33333  1.0000
  C   C121      1.0  0.66667  0.66667  0.33333  1.0000
  C   C122      1.0  0.74074  0.70370  0.33333  1.0000
  C   C123      1.0  0.66667  0.77778  0.33333  1.0000
  C   C124      1.0  0.74074  0.81481  0.33333  1.0000
  C   C125      1.0  0.66667  0.88889  0.33333  1.0000
  C   C126      1.0  0.74074  0.92593  0.33333  1.0000
  C   C127      1.0  0.77778  0.00000  0.33333  1.0000
  C   C128      1.0  0.85185  0.03704  0.33333  1.0000
  C   C129      1.0  0.77778  0.11111  0.33333  1.0000
  C   C130      1.0  0.85185  0.14815  0.33333  1.0000
  C   C131      1.0  0.77778  0.22222  0.33333  1.0000
  C   C132      1.0  0.85185  0.25926  0.33333  1.0000
  C   C133      1.0  0.77778  0.33333  0.33333  1.0000
  C   C134      1.0  0.85185  0.37037  0.33333  1.0000
  C   C135      1.0  0.77778  0.44444  0.33333  1.0000
  C   C136      1.0  0.85185  0.48148  0.33333  1.0000
  C   C137      1.0  0.77778  0.55556  0.33333  1.0000
  C   C138      1.0  0.85185  0.59259  0.33333  1.0000
  C   C139      1.0  0.77778  0.66667  0.33333  1.0000
  C   C140      1.0  0.85185  0.70370  0.33333  1.0000
  C   C141      1.0  0.77778  0.77778  0.33333  1.0000
  C   C142      1.0  0.85185  0.81481  0.33333  1.0000
  C   C143      1.0  0.77778  0.88889  0.33333  1.0000
  C   C144      1.0  0.85185  0.92593  0.33333  1.0000
  C   C145      1.0  0.88889  0.00000  0.33333  1.0000
  C   C146      1.0  0.96296  0.03704  0.33333  1.0000
  C   C147      1.0  0.88889  0.11111  0.33333  1.0000
  C   C148      1.0  0.96296  0.14815  0.33333  1.0000
  C   C149      1.0  0.88889  0.22222  0.33333  1.0000
  C   C150      1.0  0.96296  0.25926  0.33333  1.0000
  C   C151      1.0  0.88889  0.33333  0.33333  1.0000
  C   C152      1.0  0.96296  0.37037  0.33333  1.0000
  C   C153      1.0  0.88889  0.44444  0.33333  1.0000
  C   C154      1.0  0.96296  0.48148  0.33333  1.0000
  C   C155      1.0  0.88889  0.55556  0.33333  1.0000
  C   C156      1.0  0.96296  0.59259  0.33333  1.0000
  C   C157      1.0  0.88889  0.66667  0.33333  1.0000
  C   C158      1.0  0.96296  0.70370  0.33333  1.0000
  C   C159      1.0  0.88889  0.77778  0.33333  1.0000
  C   C160      1.0  0.96296  0.81481  0.33333  1.0000
  C   C161      1.0  0.88889  0.88889  0.33333  1.0000
  C   C162      1.0  0.96296  0.92593  0.33333  1.0000
  Mo  Mo1       1.0  0.00000  0.00000  0.66667  1.0000
  S   S1        1.0  0.09575  0.04788  0.77300  1.0000
  S   S2        1.0  0.09575  0.04788  0.56033  1.0000
  Mo  Mo2       1.0  0.00000  0.14363  0.66667  1.0000
  S   S3        1.0  0.09575  0.19151  0.77300  1.0000
  S   S4        1.0  0.09575  0.19151  0.56033  1.0000
  Mo  Mo3       1.0  0.00000  0.28726  0.66667  1.0000
  S   S5        1.0  0.09575  0.33514  0.77300  1.0000
  S   S6        1.0  0.09575  0.33514  0.56033  1.0000
  Mo  Mo4       1.0  0.00000  0.43089  0.66667  1.0000
  S   S7        1.0  0.09575  0.47877  0.77300  1.0000
  S   S8        1.0  0.09575  0.47877  0.56033  1.0000
  Mo  Mo5       1.0  0.14363  0.00000  0.66667  1.0000
  S   S9        1.0  0.23939  0.04788  0.77300  1.0000
  S   S10       1.0  0.23939  0.04788  0.56033  1.0000
  Mo  Mo6       1.0  0.14363  0.14363  0.66667  1.0000
  S   S11       1.0  0.23939  0.19151  0.77300  1.0000
  S   S12       1.0  0.23939  0.19151  0.56033  1.0000
  Mo  Mo7       1.0  0.14363  0.28726  0.66667  1.0000
  S   S13       1.0  0.23939  0.33514  0.77300  1.0000
  S   S14       1.0  0.23939  0.33514  0.56033  1.0000
  Mo  Mo8       1.0  0.14363  0.43089  0.66667  1.0000
  S   S15       1.0  0.23939  0.47877  0.77300  1.0000
  S   S16       1.0  0.23939  0.47877  0.56033  1.0000
  Mo  Mo9       1.0  0.28726  0.00000  0.66667  1.0000
  S   S17       1.0  0.38302  0.04788  0.77300  1.0000
  S   S18       1.0  0.38302  0.04788  0.56033  1.0000
  Mo  Mo10      1.0  0.28726  0.14363  0.66667  1.0000
  S   S19       1.0  0.38302  0.19151  0.77300  1.0000
  S   S20       1.0  0.38302  0.19151  0.56033  1.0000
  Mo  Mo11      1.0  0.28726  0.28726  0.66667  1.0000
  S   S21       1.0  0.38302  0.33514  0.77300  1.0000
  S   S22       1.0  0.38302  0.33514  0.56033  1.0000
  Mo  Mo12      1.0  0.28726  0.43089  0.66667  1.0000
  S   S23       1.0  0.38302  0.47877  0.77300  1.0000
  S   S24       1.0  0.38302  0.47877  0.56033  1.0000
  Mo  Mo13      1.0  0.43089  0.00000  0.66667  1.0000
  S   S25       1.0  0.52665  0.04788  0.77300  1.0000
  S   S26       1.0  0.52665  0.04788  0.56033  1.0000
  Mo  Mo14      1.0  0.43089  0.14363  0.66667  1.0000
  S   S27       1.0  0.52665  0.19151  0.77300  1.0000
  S   S28       1.0  0.52665  0.19151  0.56033  1.0000
  Mo  Mo15      1.0  0.43089  0.28726  0.66667  1.0000
  S   S29       1.0  0.52665  0.33514  0.77300  1.0000
  S   S30       1.0  0.52665  0.33514  0.56033  1.0000
  Mo  Mo16      1.0  0.43089  0.43089  0.66667  1.0000
  S   S31       1.0  0.52665  0.47877  0.77300  1.0000
  S   S32       1.0  0.52665  0.47877  0.56033  1.0000
  Mo  Mo17      1.0  0.57453  0.00000  0.66667  1.0000
  S   S33       1.0  0.67028  0.04788  0.77300  1.0000
  S   S34       1.0  0.67028  0.04788  0.56033  1.0000
  Mo  Mo18      1.0  0.57453  0.14363  0.66667  1.0000
  S   S35       1.0  0.67028  0.19151  0.77300  1.0000
  S   S36       1.0  0.67028  0.19151  0.56033  1.0000
  Mo  Mo19      1.0  0.57453  0.28726  0.66667  1.0000
  S   S37       1.0  0.67028  0.33514  0.77300  1.0000
  S   S38       1.0  0.67028  0.33514  0.56033  1.0000
  Mo  Mo20      1.0  0.57453  0.43089  0.66667  1.0000
  S   S39       1.0  0.67028  0.47877  0.77300  1.0000
  S   S40       1.0  0.67028  0.47877  0.56033  1.0000
  Mo  Mo21      1.0  0.71816  0.00000  0.66667  1.0000
  S   S41       1.0  0.81391  0.04788  0.77300  1.0000
  S   S42       1.0  0.81391  0.04788  0.56033  1.0000
  Mo  Mo22      1.0  0.71816  0.14363  0.66667  1.0000
  S   S43       1.0  0.81391  0.19151  0.77300  1.0000
  S   S44       1.0  0.81391  0.19151  0.56033  1.0000
  Mo  Mo23      1.0  0.71816  0.28726  0.66667  1.0000
  S   S45       1.0  0.81391  0.33514  0.77300  1.0000
  S   S46       1.0  0.81391  0.33514  0.56033  1.0000
  Mo  Mo24      1.0  0.71816  0.43089  0.66667  1.0000
  S   S47       1.0  0.81391  0.47877  0.77300  1.0000
  S   S48       1.0  0.81391  0.47877  0.56033  1.0000
  Mo  Mo25      1.0  0.86179  0.00000  0.66667  1.0000
  S   S49       1.0  0.95754  0.04788  0.77300  1.0000
  S   S50       1.0  0.95754  0.04788  0.56033  1.0000
  Mo  Mo26      1.0  0.86179  0.14363  0.66667  1.0000
  S   S51       1.0  0.95754  0.19151  0.77300  1.0000
  S   S52       1.0  0.95754  0.19151  0.56033  1.0000
  Mo  Mo27      1.0  0.86179  0.28726  0.66667  1.0000
  S   S53       1.0  0.95754  0.33514  0.77300  1.0000
  S   S54       1.0  0.95754  0.33514  0.56033  1.0000
  Mo  Mo28      1.0  0.86179  0.43089  0.66667  1.0000
  S   S55       1.0  0.95754  0.47877  0.77300  1.0000
  S   S56       1.0  0.95754  0.47877  0.56033  1.0000
