data_image0
_chemical_formula_structural       C234
_chemical_formula_sum              "C234"
_cell_length_a       22.14
_cell_length_b       31.98
_cell_length_c       15
_cell_angle_alpha    90
_cell_angle_beta     90
_cell_angle_gamma    120

_space_group_name_H-M_alt    "P 1"
_space_group_IT_number       1

loop_
  _space_group_symop_operation_xyz
  'x, y, z'

loop_
  _atom_site_type_symbol
  _atom_site_label
  _atom_site_symmetry_multiplicity
  _atom_site_fract_x
  _atom_site_fract_y
  _atom_site_fract_z
  _atom_site_occupancy
  C   C1        1.0  0.00000  0.00000  0.33333  1.0000
  C   C2        1.0  0.07407  0.02564  0.33333  1.0000
  C   C3        1.0  0.00000  0.07692  0.33333  1.0000
  C   C4        1.0  0.07407  0.10256  0.33333  1.0000
  C   C5        1.0  0.00000  0.15385  0.33333  1.0000
  C   C6        1.0  0.07407  0.17949  0.33333  1.0000
  C   C7        1.0  0.00000  0.23077  0.33333  1.0000
  C   C8        1.0  0.07407  0.25641  0.33333  1.0000
  C   C9        1.0  0.00000  0.30769  0.33333  1.0000
  C   C10       1.0  0.07407  0.33333  0.33333  1.0000
  C   C11       1.0  0.00000  0.38462  0.33333  1.0000
  C   C12       1.0  0.07407  0.41026  0.33333  1.0000
  C   C13       1.0  0.00000  0.46154  0.33333  1.0000
  C   C14       1.0  0.07407  0.48718  0.33333  1.0000
  C   C15       1.0  0.00000  0.53846  0.33333  1.0000
  C   C16       1.0  0.07407  0.56410  0.33333  1.0000
  C   C17       1.0  0.00000  0.61538  0.33333  1.0000
  C   C18       1.0  0.07407  0.64103  0.33333  1.0000
  C   C19       1.0  0.00000  0.69231  0.33333  1.0000
  C   C20       1.0  0.07407  0.71795  0.33333  1.0000
  C   C21       1.0  0.00000  0.76923  0.33333  1.0000
  C   C22       1.0  0.07407  0.79487  0.33333  1.0000
  C   C23       1.0  0.00000  0.84615  0.33333  1.0000
  C   C24       1.0  0.07407  0.87179  0.33333  1.0000
  C   C25       1.0  0.00000  0.92308  0.33333  1.0000
  C   C26       1.0  0.07407  0.94872  0.33333  1.0000
  C   C27       1.0  0.11111  0.00000  0.33333  1.0000
  C   C28       1.0  0.18519  0.02564  0.33333  1.0000
  C   C29       1.0  0.11111  0.07692  0.33333  1.0000
  C   C30       1.0  0.18519  0.10256  0.33333  1.0000
  C   C31       1.0  0.11111  0.15385  0.33333  1.0000
  C   C32       1.0  0.18519  0.17949  0.33333  1.0000
  C   C33       1.0  0.11111  0.23077  0.33333  1.0000
  C   C34       1.0  0.18519  0.25641  0.33333  1.0000
  C   C35       1.0  0.11111  0.30769  0.33333  1.0000
  C   C36       1.0  0.18519  0.33333  0.33333  1.0000
  C   C37       1.0  0.11111  0.38462  0.33333  1.0000
  C   C38       1.0  0.18519  0.41026  0.33333  1.0000
  C   C39       1.0  0.11111  0.46154  0.33333  1.0000
  C   C40       1.0  0.18519  0.48718  0.33333  1.0000
  C   C41       1.0  0.11111  0.53846  0.33333  1.0000
  C   C42       1.0  0.18519  0.56410  0.33333  1.0000
  C   C43       1.0  0.11111  0.61538  0.33333  1.0000
  C   C44       1.0  0.18519  0.64103  0.33333  1.0000
  C   C45       1.0  0.11111  0.69231  0.33333  1.0000
  C   C46       1.0  0.18519  0.71795  0.33333  1.0000
  C   C47       1.0  0.11111  0.76923  0.33333  1.0000
  C   C48       1.0  0.18519  0.79487  0.33333  1.0000
  C   C49       1.0  0.11111  0.84615  0.33333  1.0000
  C   C50       1.0  0.18519  0.87179  0.33333  1.0000
  C   C51       1.0  0.11111  0.92308  0.33333  1.0000
  C   C52       1.0  0.18519  0.94872  0.33333  1.0000
  C   C53       1.0  0.22222  0.00000  0.33333  1.0000
  C   C54       1.0  0.29630  0.02564  0.33333  1.0000
  C   C55       1.0  0.22222  0.07692  0.33333  1.0000
  C   C56       1.0  0.29630  0.10256  0.33333  1.0000
  C   C57       1.0  0.22222  0.15385  0.33333  1.0000
  C   C58       1.0  0.29630  0.17949  0.33333  1.0000
  C   C59       1.0  0.22222  0.23077  0.33333  1.0000
  C   C60       1.0  0.29630  0.25641  0.33333  1.0000
  C   C61       1.0  0.22222  0.30769  0.33333  1.0000
  C   C62       1.0  0.29630  0.33333  0.33333  1.0000
  C   C63       1.0  0.22222  0.38462  0.33333  1.0000
  C   C64       1.0  0.29630  0.41026  0.33333  1.0000
  C   C65       1.0  0.22222  0.46154  0.33333  1.0000
  C   C66       1.0  0.29630  0.48718  0.33333  1.0000
  C   C67       1.0  0.22222  0.53846  0.33333  1.0000
  C   C68       1.0  0.29630  0.56410  0.33333  1.0000
  C   C69       1.0  0.22222  0.61538  0.33333  1.0000
  C   C70       1.0  0.29630  0.64103  0.33333  1.0000
  C   C71       1.0  0.22222  0.69231  0.33333  1.0000
  C   C72       1.0  0.29630  0.71795  0.33333  1.0000
  C   C73       1.0  0.22222  0.76923  0.33333  1.0000
  C   C74       1.0  0.29630  0.79487  0.33333  1.0000
  C   C75       1.0  0.22222  0.84615  0.33333  1.0000
  C   C76       1.0  0.29630  0.87179  0.33333  1.0000
  C   C77       1.0  0.22222  0.92308  0.33333  1.0000
  C   C78       1.0  0.29630  0.94872  0.33333  1.0000
  C   C79       1.0  0.33333  0.00000  0.33333  1.0000
  C   C80       1.0  0.40741  0.02564  0.33333  1.0000
  C   C81       1.0  0.33333  0.07692  0.33333  1.0000
  C   C82       1.0  0.40741  0.10256  0.33333  1.0000
  C   C83       1.0  0.33333  0.15385  0.33333  1.0000
  C   C84       1.0  0.40741  0.17949  0.33333  1.0000
  C   C85       1.0  0.33333  0.23077  0.33333  1.0000
  C   C86       1.0  0.40741  0.25641  0.33333  1.0000
  C   C87       1.0  0.33333  0.30769  0.33333  1.0000
  C   C88       1.0  0.40741  0.33333  0.33333  1.0000
  C   C89       1.0  0.33333  0.38462  0.33333  1.0000
  C   C90       1.0  0.40741  0.41026  0.33333  1.0000
  C   C91       1.0  0.33333  0.46154  0.33333  1.0000
  C   C92       1.0  0.40741  0.48718  0.33333  1.0000
  C   C93       1.0  0.33333  0.53846  0.33333  1.0000
  C   C94       1.0  0.40741  0.56410  0.33333  1.0000
  C   C95       1.0  0.33333  0.61538  0.33333  1.0000
  C   C96       1.0  0.40741  0.64103  0.33333  1.0000
  C   C97       1.0  0.33333  0.69231  0.33333  1.0000
  C   C98       1.0  0.40741  0.71795  0.33333  1.0000
  C   C99       1.0  0.33333  0.76923  0.33333  1.0000
  C   C100      1.0  0.40741  0.79487  0.33333  1.0000
  C   C101      1.0  0.33333  0.84615  0.33333  1.0000
  C   C102      1.0  0.40741  0.87179  0.33333  1.0000
  C   C103      1.0  0.33333  0.92308  0.33333  1.0000
  C   C104      1.0  0.40741  0.94872  0.33333  1.0000
  C   C105      1.0  0.44444  0.00000  0.33333  1.0000
  C   C106      1.0  0.51852  0.02564  0.33333  1.0000
  C   C107      1.0  0.44444  0.07692  0.33333  1.0000
  C   C108      1.0  0.51852  0.10256  0.33333  1.0000
  C   C109      1.0  0.44444  0.15385  0.33333  1.0000
  C   C110      1.0  0.51852  0.17949  0.33333  1.0000
  C   C111      1.0  0.44444  0.23077  0.33333  1.0000
  C   C112      1.0  0.51852  0.25641  0.33333  1.0000
  C   C113      1.0  0.44444  0.30769  0.33333  1.0000
  C   C114      1.0  0.51852  0.33333  0.33333  1.0000
  C   C115      1.0  0.44444  0.38462  0.33333  1.0000
  C   C116      1.0  0.51852  0.41026  0.33333  1.0000
  C   C117      1.0  0.44444  0.46154  0.33333  1.0000
  C   C118      1.0  0.51852  0.48718  0.33333  1.0000
  C   C119      1.0  0.44444  0.53846  0.33333  1.0000
  C   C120      1.0  0.51852  0.56410  0.33333  1.0000
  C   C121      1.0  0.44444  0.61538  0.33333  1.0000
  C   C122      1.0  0.51852  0.64103  0.33333  1.0000
  C   C123      1.0  0.44444  0.69231  0.33333  1.0000
  C   C124      1.0  0.51852  0.71795  0.33333  1.0000
  C   C125      1.0  0.44444  0.76923  0.33333  1.0000
  C   C126      1.0  0.51852  0.79487  0.33333  1.0000
  C   C127      1.0  0.44444  0.84615  0.33333  1.0000
  C   C128      1.0  0.51852  0.87179  0.33333  1.0000
  C   C129      1.0  0.44444  0.92308  0.33333  1.0000
  C   C130      1.0  0.51852  0.94872  0.33333  1.0000
  C   C131      1.0  0.55556  0.00000  0.33333  1.0000
  C   C132      1.0  0.62963  0.02564  0.33333  1.0000
  C   C133      1.0  0.55556  0.07692  0.33333  1.0000
  C   C134      1.0  0.62963  0.10256  0.33333  1.0000
  C   C135      1.0  0.55556  0.15385  0.33333  1.0000
  C   C136      1.0  0.62963  0.17949  0.33333  1.0000
  C   C137      1.0  0.55556  0.23077  0.33333  1.0000
  C   C138      1.0  0.62963  0.25641  0.33333  1.0000
  C   C139      1.0  0.55556  0.30769  0.33333  1.0000
  C   C140      1.0  0.62963  0.33333  0.33333  1.0000
  C   C141      1.0  0.55556  0.38462  0.33333  1.0000
  C   C142      1.0  0.62963  0.41026  0.33333  1.0000
  C   C143      1.0  0.55556  0.46154  0.33333  1.0000
  C   C144      1.0  0.62963  0.48718  0.33333  1.0000
  C   C145      1.0  0.55556  0.53846  0.33333  1.0000
  C   C146      1.0  0.62963  0.56410  0.33333  1.0000
  C   C147      1.0  0.55556  0.61538  0.33333  1.0000
  C   C148      1.0  0.62963  0.64103  0.33333  1.0000
  C   C149      1.0  0.55556  0.69231  0.33333  1.0000
  C   C150      1.0  0.62963  0.71795  0.33333  1.0000
  C   C151      1.0  0.55556  0.76923  0.33333  1.0000
  C   C152      1.0  0.62963  0.79487  0.33333  1.0000
  C   C153      1.0  0.55556  0.84615  0.33333  1.0000
  C   C154      1.0  0.62963  0.87179  0.33333  1.0000
  C   C155      1.0  0.55556  0.92308  0.33333  1.0000
  C   C156      1.0  0.62963  0.94872  0.33333  1.0000
  C   C157      1.0  0.66667  0.00000  0.33333  1.0000
  C   C158      1.0  0.74074  0.02564  0.33333  1.0000
  C   C159      1.0  0.66667  0.07692  0.33333  1.0000
  C   C160      1.0  0.74074  0.10256  0.33333  1.0000
  C   C161      1.0  0.66667  0.15385  0.33333  1.0000
  C   C162      1.0  0.74074  0.17949  0.33333  1.0000
  C   C163      1.0  0.66667  0.23077  0.33333  1.0000
  C   C164      1.0  0.74074  0.25641  0.33333  1.0000
  C   C165      1.0  0.66667  0.30769  0.33333  1.0000
  C   C166      1.0  0.74074  0.33333  0.33333  1.0000
  C   C167      1.0  0.66667  0.38462  0.33333  1.0000
  C   C168      1.0  0.74074  0.41026  0.33333  1.0000
  C   C169      1.0  0.66667  0.46154  0.33333  1.0000
  C   C170      1.0  0.74074  0.48718  0.33333  1.0000
  C   C171      1.0  0.66667  0.53846  0.33333  1.0000
  C   C172      1.0  0.74074  0.56410  0.33333  1.0000
  C   C173      1.0  0.66667  0.61538  0.33333  1.0000
  C   C174      1.0  0.74074  0.64103  0.33333  1.0000
  C   C175      1.0  0.66667  0.69231  0.33333  1.0000
  C   C176      1.0  0.74074  0.71795  0.33333  1.0000
  C   C177      1.0  0.66667  0.76923  0.33333  1.0000
  C   C178      1.0  0.74074  0.79487  0.33333  1.0000
  C   C179      1.0  0.66667  0.84615  0.33333  1.0000
  C   C180      1.0  0.74074  0.87179  0.33333  1.0000
  C   C181      1.0  0.66667  0.92308  0.33333  1.0000
  C   C182      1.0  0.74074  0.94872  0.33333  1.0000
  C   C183      1.0  0.77778  0.00000  0.33333  1.0000
  C   C184      1.0  0.85185  0.02564  0.33333  1.0000
  C   C185      1.0  0.77778  0.07692  0.33333  1.0000
  C   C186      1.0  0.85185  0.10256  0.33333  1.0000
  C   C187      1.0  0.77778  0.15385  0.33333  1.0000
  C   C188      1.0  0.85185  0.17949  0.33333  1.0000
  C   C189      1.0  0.77778  0.23077  0.33333  1.0000
  C   C190      1.0  0.85185  0.25641  0.33333  1.0000
  C   C191      1.0  0.77778  0.30769  0.33333  1.0000
  C   C192      1.0  0.85185  0.33333  0.33333  1.0000
  C   C193      1.0  0.77778  0.38462  0.33333  1.0000
  C   C194      1.0  0.85185  0.41026  0.33333  1.0000
  C   C195      1.0  0.77778  0.46154  0.33333  1.0000
  C   C196      1.0  0.85185  0.48718  0.33333  1.0000
  C   C197      1.0  0.77778  0.53846  0.33333  1.0000
  C   C198      1.0  0.85185  0.56410  0.33333  1.0000
  C   C199      1.0  0.77778  0.61538  0.33333  1.0000
  C   C200      1.0  0.85185  0.64103  0.33333  1.0000
  C   C201      1.0  0.77778  0.69231  0.33333  1.0000
  C   C202      1.0  0.85185  0.71795  0.33333  1.0000
  C   C203      1.0  0.77778  0.76923  0.33333  1.0000
  C   C204      1.0  0.85185  0.79487  0.33333  1.0000
  C   C205      1.0  0.77778  0.84615  0.33333  1.0000
  C   C206      1.0  0.85185  0.87179  0.33333  1.0000
  C   C207      1.0  0.77778  0.92308  0.33333  1.0000
  C   C208      1.0  0.85185  0.94872  0.33333  1.0000
  C   C209      1.0  0.88889  0.00000  0.33333  1.0000
  C   C210      1.0  0.96296  0.02564  0.33333  1.0000
  C   C211      1.0  0.88889  0.07692  0.33333  1.0000
  C   C212      1.0  0.96296  0.10256  0.33333  1.0000
  C   C213      1.0  0.88889  0.15385  0.33333  1.0000
  C   C214      1.0  0.96296  0.17949  0.33333  1.0000
  C   C215      1.0  0.88889  0.23077  0.33333  1.0000
  C   C216      1.0  0.96296  0.25641  0.33333  1.0000
  C   C217      1.0  0.88889  0.30769  0.33333  1.0000
  C   C218      1.0  0.96296  0.33333  0.33333  1.0000
  C   C219      1.0  0.88889  0.38462  0.33333  1.0000
  C   C220      1.0  0.96296  0.41026  0.33333  1.0000
  C   C221      1.0  0.88889  0.46154  0.33333  1.0000
  C   C222      1.0  0.96296  0.48718  0.33333  1.0000
  C   C223      1.0  0.88889  0.53846  0.33333  1.0000
  C   C224      1.0  0.96296  0.56410  0.33333  1.0000
  C   C225      1.0  0.88889  0.61538  0.33333  1.0000
  C   C226      1.0  0.96296  0.64103  0.33333  1.0000
  C   C227      1.0  0.88889  0.69231  0.33333  1.0000
  C   C228      1.0  0.96296  0.71795  0.33333  1.0000
  C   C229      1.0  0.88889  0.76923  0.33333  1.0000
  C   C230      1.0  0.96296  0.79487  0.33333  1.0000
  C   C231      1.0  0.88889  0.84615  0.33333  1.0000
  C   C232      1.0  0.96296  0.87179  0.33333  1.0000
  C   C233      1.0  0.88889  0.92308  0.33333  1.0000
  C   C234      1.0  0.96296  0.94872  0.33333  1.0000
