data_image0
_chemical_formula_structural       MoS2MoS2MoS2MoS2MoS2MoS2MoS2MoS2MoS2MoS2MoS2MoS2MoS2MoS2MoS2MoS2MoS2MoS2MoS2MoS2MoS2MoS2MoS2MoS2MoS2MoS2MoS2MoS2
_chemical_formula_sum              "Mo28 S56"
_cell_length_a       22.26
_cell_length_b       12.72
_cell_length_c       33.19
_cell_angle_alpha    90
_cell_angle_beta     90
_cell_angle_gamma    120

_space_group_name_H-M_alt    "P 1"
_space_group_IT_number       1

loop_
  _space_group_symop_operation_xyz
  'x, y, z'

loop_
  _atom_site_type_symbol
  _atom_site_label
  _atom_site_symmetry_multiplicity
  _atom_site_fract_x
  _atom_site_fract_y
  _atom_site_fract_z
  _atom_site_occupancy
  Mo  Mo1       1.0  0.00000  0.00000  0.65065  1.0000
  S   S1        1.0  0.09524  0.08333  0.69870  1.0000
  S   S2        1.0  0.09524  0.08333  0.60259  1.0000
  Mo  Mo2       1.0  0.00000  0.25000  0.65065  1.0000
  S   S3        1.0  0.09524  0.33333  0.69870  1.0000
  S   S4        1.0  0.09524  0.33333  0.60259  1.0000
  Mo  Mo3       1.0  0.00000  0.50000  0.65065  1.0000
  S   S5        1.0  0.09524  0.58333  0.69870  1.0000
  S   S6        1.0  0.09524  0.58333  0.60259  1.0000
  Mo  Mo4       1.0  0.00000  0.75000  0.65065  1.0000
  S   S7        1.0  0.09524  0.83333  0.69870  1.0000
  S   S8        1.0  0.09524  0.83333  0.60259  1.0000
  Mo  Mo5       1.0  0.14286  0.00000  0.65065  1.0000
  S   S9        1.0  0.23810  0.08333  0.69870  1.0000
  S   S10       1.0  0.23810  0.08333  0.60259  1.0000
  Mo  Mo6       1.0  0.14286  0.25000  0.65065  1.0000
  S   S11       1.0  0.23810  0.33333  0.69870  1.0000
  S   S12       1.0  0.23810  0.33333  0.60259  1.0000
  Mo  Mo7       1.0  0.14286  0.50000  0.65065  1.0000
  S   S13       1.0  0.23810  0.58333  0.69870  1.0000
  S   S14       1.0  0.23810  0.58333  0.60259  1.0000
  Mo  Mo8       1.0  0.14286  0.75000  0.65065  1.0000
  S   S15       1.0  0.23810  0.83333  0.69870  1.0000
  S   S16       1.0  0.23810  0.83333  0.60259  1.0000
  Mo  Mo9       1.0  0.28571  0.00000  0.65065  1.0000
  S   S17       1.0  0.38095  0.08333  0.69870  1.0000
  S   S18       1.0  0.38095  0.08333  0.60259  1.0000
  Mo  Mo10      1.0  0.28571  0.25000  0.65065  1.0000
  S   S19       1.0  0.38095  0.33333  0.69870  1.0000
  S   S20       1.0  0.38095  0.33333  0.60259  1.0000
  Mo  Mo11      1.0  0.28571  0.50000  0.65065  1.0000
  S   S21       1.0  0.38095  0.58333  0.69870  1.0000
  S   S22       1.0  0.38095  0.58333  0.60259  1.0000
  Mo  Mo12      1.0  0.28571  0.75000  0.65065  1.0000
  S   S23       1.0  0.38095  0.83333  0.69870  1.0000
  S   S24       1.0  0.38095  0.83333  0.60259  1.0000
  Mo  Mo13      1.0  0.42857  0.00000  0.65065  1.0000
  S   S25       1.0  0.52381  0.08333  0.69870  1.0000
  S   S26       1.0  0.52381  0.08333  0.60259  1.0000
  Mo  Mo14      1.0  0.42857  0.25000  0.65065  1.0000
  S   S27       1.0  0.52381  0.33333  0.69870  1.0000
  S   S28       1.0  0.52381  0.33333  0.60259  1.0000
  Mo  Mo15      1.0  0.42857  0.50000  0.65065  1.0000
  S   S29       1.0  0.52381  0.58333  0.69870  1.0000
  S   S30       1.0  0.52381  0.58333  0.60259  1.0000
  Mo  Mo16      1.0  0.42857  0.75000  0.65065  1.0000
  S   S31       1.0  0.52381  0.83333  0.69870  1.0000
  S   S32       1.0  0.52381  0.83333  0.60259  1.0000
  Mo  Mo17      1.0  0.57143  0.00000  0.65065  1.0000
  S   S33       1.0  0.66667  0.08333  0.69870  1.0000
  S   S34       1.0  0.66667  0.08333  0.60259  1.0000
  Mo  Mo18      1.0  0.57143  0.25000  0.65065  1.0000
  S   S35       1.0  0.66667  0.33333  0.69870  1.0000
  S   S36       1.0  0.66667  0.33333  0.60259  1.0000
  Mo  Mo19      1.0  0.57143  0.50000  0.65065  1.0000
  S   S37       1.0  0.66667  0.58333  0.69870  1.0000
  S   S38       1.0  0.66667  0.58333  0.60259  1.0000
  Mo  Mo20      1.0  0.57143  0.75000  0.65065  1.0000
  S   S39       1.0  0.66667  0.83333  0.69870  1.0000
  S   S40       1.0  0.66667  0.83333  0.60259  1.0000
  Mo  Mo21      1.0  0.71429  0.00000  0.65065  1.0000
  S   S41       1.0  0.80952  0.08333  0.69870  1.0000
  S   S42       1.0  0.80952  0.08333  0.60259  1.0000
  Mo  Mo22      1.0  0.71429  0.25000  0.65065  1.0000
  S   S43       1.0  0.80952  0.33333  0.69870  1.0000
  S   S44       1.0  0.80952  0.33333  0.60259  1.0000
  Mo  Mo23      1.0  0.71429  0.50000  0.65065  1.0000
  S   S45       1.0  0.80952  0.58333  0.69870  1.0000
  S   S46       1.0  0.80952  0.58333  0.60259  1.0000
  Mo  Mo24      1.0  0.71429  0.75000  0.65065  1.0000
  S   S47       1.0  0.80952  0.83333  0.69870  1.0000
  S   S48       1.0  0.80952  0.83333  0.60259  1.0000
  Mo  Mo25      1.0  0.85714  0.00000  0.65065  1.0000
  S   S49       1.0  0.95238  0.08333  0.69870  1.0000
  S   S50       1.0  0.95238  0.08333  0.60259  1.0000
  Mo  Mo26      1.0  0.85714  0.25000  0.65065  1.0000
  S   S51       1.0  0.95238  0.33333  0.69870  1.0000
  S   S52       1.0  0.95238  0.33333  0.60259  1.0000
  Mo  Mo27      1.0  0.85714  0.50000  0.65065  1.0000
  S   S53       1.0  0.95238  0.58333  0.69870  1.0000
  S   S54       1.0  0.95238  0.58333  0.60259  1.0000
  Mo  Mo28      1.0  0.85714  0.75000  0.65065  1.0000
  S   S55       1.0  0.95238  0.83333  0.69870  1.0000
  S   S56       1.0  0.95238  0.83333  0.60259  1.0000
