data_graphene_structure
_audit_creation_date              2023-11-21
_audit_creation_method            'Materials Studio'
_symmetry_space_group_name_H-M    'P1'
_symmetry_Int_Tables_number       1
_symmetry_cell_setting            triclinic
loop_
_symmetry_equiv_pos_as_xyz
  x,y,z
_cell_length_a                    17.2200
_cell_length_b                    17.2200
_cell_length_c                    15.0000
_cell_angle_alpha                 90.0000
_cell_angle_beta                  90.0000
_cell_angle_gamma                 120.0000
loop_
_atom_site_label
_atom_site_type_symbol
_atom_site_fract_x
_atom_site_fract_y
_atom_site_fract_z
_atom_site_U_iso_or_equiv
_atom_site_adp_type
_atom_site_occupancy
C1     C    -0.01091   0.00182   0.33771   0.00000  Uiso   1.00
C2     C     0.08409   0.04922   0.34014   0.00000  Uiso   1.00
C3     C    -0.01163   0.14454   0.33575   0.00000  Uiso   1.00
C4     C     0.08296   0.19165   0.33731   0.00000  Uiso   1.00
C5     C    -0.01239   0.28725   0.33482   0.00000  Uiso   1.00
C6     C     0.08217   0.33449   0.33558   0.00000  Uiso   1.00
C7     C    -0.01268   0.42987   0.33720   0.00000  Uiso   1.00
C8     C     0.08236   0.47733   0.33708   0.00000  Uiso   1.00
C9     C    -0.01229   0.57256   0.34294   0.00000  Uiso   1.00
C10    C     0.08294   0.62018   0.34134   0.00000  Uiso   1.00
C11    C    -0.01152   0.71575   0.34179   0.00000  Uiso   1.00
C12    C     0.08365   0.76330   0.34269   0.00000  Uiso   1.00
C13    C    -0.01090   0.85890   0.33936   0.00000  Uiso   1.00
C14    C     0.08431   0.90653   0.34198   0.00000  Uiso   1.00
C15    C     0.13192   0.00182   0.34183   0.00000  Uiso   1.00
C16    C     0.22728   0.04948   0.34208   0.00000  Uiso   1.00
C17    C     0.13105   0.14415   0.33909   0.00000  Uiso   1.00
C18    C     0.22611   0.19184   0.33783   0.00000  Uiso   1.00
C19    C     0.12956   0.28672   0.33595   0.00000  Uiso   1.00
C20    C     0.22394   0.33407   0.33288   0.00000  Uiso   1.00
C21    C     0.12965   0.42974   0.33479   0.00000  Uiso   1.00
C22    C     0.22467   0.47718   0.33095   0.00000  Uiso   1.00
C23    C     0.13019   0.57249   0.33795   0.00000  Uiso   1.00
C24    C     0.22532   0.61998   0.33406   0.00000  Uiso   1.00
C25    C     0.13083   0.71548   0.34130   0.00000  Uiso   1.00
C26    C     0.22593   0.76302   0.33862   0.00000  Uiso   1.00
C27    C     0.13164   0.85877   0.34268   0.00000  Uiso   1.00
C28    C     0.22686   0.90634   0.34205   0.00000  Uiso   1.00
C29    C     0.27485   0.00171   0.34212   0.00000  Uiso   1.00
C30    C     0.37020   0.04905   0.34045   0.00000  Uiso   1.00
C31    C     0.27506   0.14476   0.33987   0.00000  Uiso   1.00
C32    C     0.37100   0.19154   0.33747   0.00000  Uiso   1.00
C33    C     0.27117   0.28622   0.33264   0.00000  Uiso   1.00
C34    C     0.36845   0.33563   0.31774   0.00000  Uiso   1.00
C35    C     0.27155   0.42922   0.32836   0.00000  Uiso   1.00
C36    C     0.36607   0.47608   0.32015   0.00000  Uiso   1.00
C37    C     0.27262   0.57232   0.32949   0.00000  Uiso   1.00
C38    C     0.36769   0.61970   0.32341   0.00000  Uiso   1.00
C39    C     0.27298   0.71513   0.33451   0.00000  Uiso   1.00
C40    C     0.36775   0.76252   0.33131   0.00000  Uiso   1.00
C41    C     0.27379   0.85838   0.33954   0.00000  Uiso   1.00
C42    C     0.36879   0.90574   0.33703   0.00000  Uiso   1.00
C43    C     0.41756   0.00133   0.33711   0.00000  Uiso   1.00
C44    C     0.51299   0.04936   0.33223   0.00000  Uiso   1.00
C45    C     0.41837   0.14434   0.33893   0.00000  Uiso   1.00
C46    C     0.51378   0.19284   0.33246   0.00000  Uiso   1.00
C47    C     0.41989   0.28424   0.32070   0.00000  Uiso   1.00
C48    C     0.51219   0.32988   0.31161   0.00000  Uiso   1.00
C49    C     0.41169   0.42265   0.31119   0.00000  Uiso   1.00
C50    C     0.41462   0.57147   0.31479   0.00000  Uiso   1.00
C51    C     0.51442   0.62456   0.30317   0.00000  Uiso   1.00
C52    C     0.41513   0.71526   0.32577   0.00000  Uiso   1.00
C53    C     0.51531   0.76668   0.32551   0.00000  Uiso   1.00
C54    C     0.41512   0.85752   0.33335   0.00000  Uiso   1.00
C55    C     0.51474   0.90781   0.33129   0.00000  Uiso   1.00
C56    C     0.56128   0.00249   0.33058   0.00000  Uiso   1.00
C57    C     0.65632   0.05023   0.32857   0.00000  Uiso   1.00
C58    C     0.56067   0.14478   0.32771   0.00000  Uiso   1.00
C59    C     0.65560   0.19190   0.32004   0.00000  Uiso   1.00
C60    C     0.56205   0.28867   0.31919   0.00000  Uiso   1.00
C61    C     0.65462   0.33557   0.31829   0.00000  Uiso   1.00
C62    C     0.67700   0.48882   0.30424   0.00000  Uiso   1.00
C63    C     0.56557   0.59170   0.31665   0.00000  Uiso   1.00
C64    C     0.65161   0.61487   0.32644   0.00000  Uiso   1.00
C65    C     0.56327   0.72120   0.31950   0.00000  Uiso   1.00
C66    C     0.65808   0.76717   0.32396   0.00000  Uiso   1.00
C67    C     0.56234   0.86097   0.32932   0.00000  Uiso   1.00
C68    C     0.65727   0.90838   0.32939   0.00000  Uiso   1.00
C69    C     0.70426   0.00300   0.32963   0.00000  Uiso   1.00
C70    C     0.79910   0.05015   0.33055   0.00000  Uiso   1.00
C71    C     0.70340   0.14496   0.32521   0.00000  Uiso   1.00
C72    C     0.79821   0.19249   0.32734   0.00000  Uiso   1.00
C73    C     0.70312   0.28667   0.31152   0.00000  Uiso   1.00
C74    C     0.79738   0.33493   0.32470   0.00000  Uiso   1.00
C75    C     0.69476   0.42850   0.32437   0.00000  Uiso   1.00
C76    C     0.79652   0.47733   0.34030   0.00000  Uiso   1.00
C77    C     0.70706   0.57518   0.30840   0.00000  Uiso   1.00
C78    C     0.79994   0.62083   0.32512   0.00000  Uiso   1.00
C79    C     0.70469   0.71797   0.32288   0.00000  Uiso   1.00
C80    C     0.79947   0.76434   0.32696   0.00000  Uiso   1.00
C81    C     0.70521   0.86123   0.32848   0.00000  Uiso   1.00
C82    C     0.79970   0.90763   0.33101   0.00000  Uiso   1.00
C83    C     0.84681   0.00249   0.33251   0.00000  Uiso   1.00
C84    C     0.94149   0.04960   0.33533   0.00000  Uiso   1.00
C85    C     0.84608   0.14507   0.33066   0.00000  Uiso   1.00
C86    C     0.94072   0.19226   0.33375   0.00000  Uiso   1.00
C87    C     0.84532   0.28762   0.32895   0.00000  Uiso   1.00
C88    C     0.94001   0.33488   0.33409   0.00000  Uiso   1.00
C89    C     0.84412   0.42971   0.33573   0.00000  Uiso   1.00
C90    C     0.93966   0.47729   0.33961   0.00000  Uiso   1.00
C91    C     0.84557   0.57264   0.33850   0.00000  Uiso   1.00
C92    C     0.94057   0.62030   0.34271   0.00000  Uiso   1.00
C93    C     0.84653   0.71598   0.33033   0.00000  Uiso   1.00
C94    C     0.94128   0.76354   0.33834   0.00000  Uiso   1.00
C95    C     0.84702   0.85946   0.33140   0.00000  Uiso   1.00
C96    C     0.94174   0.90667   0.33636   0.00000  Uiso   1.00
Ni97   Ni    0.54876   0.42876   0.32563   0.00000  Uiso   1.00
Ni98   Ni    0.59672   0.39987   0.48053   0.00000  Uiso   1.00
Ni99   Ni    0.46022   0.37413   0.47993   0.00000  Uiso   1.00
Ni100  Ni    0.58541   0.51033   0.42447   0.00000  Uiso   1.00
O101   O     0.63462   0.59834   0.49923   0.00000  Uiso   1.00
O102   O     0.46756   0.45576   0.55920   0.00000  Uiso   1.00
O103   O     0.59680   0.31707   0.55089   0.00000  Uiso   1.00
H104   H     0.40687   0.43933   0.59818   0.00000  Uiso   1.00
H105   H     0.68688   0.59742   0.52681   0.00000  Uiso   1.00
H106   H     0.63888   0.35061   0.60029   0.00000  Uiso   1.00
loop_
_geom_bond_atom_site_label_1
_geom_bond_atom_site_label_2
_geom_bond_distance
_geom_bond_site_symmetry_2
_ccdc_geom_bond_type
C1     C2      1.417   .     D
C1     C84     1.423   1_455 S
C1     C96     1.419   1_445 S
C2     C15     1.420   .     S
C2     C17     1.416   .     S
C3     C4      1.411   .     D
C3     C84     1.416   1_455 S
C3     C86     1.423   1_455 S
C4     C17     1.426   .     S
C4     C19     1.418   .     S
C5     C6      1.410   .     S
C5     C86     1.417   1_455 D
C5     C88     1.420   1_455 S
C6     C19     1.419   .     D
C6     C21     1.421   .     S
C7     C8      1.417   .     S
C7     C88     1.417   1_455 D
C7     C90     1.418   1_455 S
C8     C21     1.415   .     S
C8     C23     1.419   .     D
C9     C10     1.420   .     S
C9     C90     1.422   1_455 D
C9     C92     1.415   1_455 S
C10    C23     1.417   .     S
C10    C25     1.421   .     D
C11    C12     1.419   .     S
C11    C92     1.423   1_455 S
C11    C94     1.418   1_455 D
C12    C25     1.417   .     S
C12    C27     1.424   .     D
C13    C14     1.420   .     D
C13    C94     1.422   1_455 S
C13    C96     1.419   1_455 S
C14    C15     1.421   1_565 S
C14    C27     1.418   .     S
C15    C14     1.421   1_545 S
C15    C16     1.422   .     D
C16    C29     1.422   .     S
C16    C31     1.421   .     S
C17    C18     1.418   .     D
C18    C31     1.432   .     S
C18    C33     1.410   .     S
C19    C20     1.408   .     S
C20    C33     1.418   .     D
C20    C35     1.421   .     S
C21    C22     1.418   .     D
C22    C35     1.415   .     S
C22    C37     1.419   .     S
C23    C24     1.420   .     S
C24    C37     1.418   .     D
C24    C39     1.419   .     S
C25    C26     1.419   .     S
C26    C39     1.417   .     D
C26    C41     1.422   .     S
C27    C28     1.420   .     S
C28    C29     1.422   1_565 S
C28    C41     1.416   .     D
C29    C28     1.422   1_545 S
C29    C30     1.422   .     D
C30    C43     1.419   .     S
C30    C45     1.421   .     S
C31    C32     1.431   .     D
C32    C45     1.410   .     S
C32    C47     1.406   .     S
C33    C34     1.468   .     S
C34    C47     1.534   .     S
C34    C49     1.301   .     D
C34    Ni99    2.794   .     S
C35    C36     1.415   .     D
C36    C49     1.485   .     S
C36    C50     1.425   .     S
C37    C38     1.421   .     S
C38    C50     1.425   .     S
C38    C52     1.426   .     D
C39    C40     1.414   .     S
C40    C52     1.414   .     S
C40    C54     1.417   .     D
C41    C42     1.417   .     S
C42    C43     1.426   1_565 D
C42    C54     1.411   .     S
C43    C42     1.426   1_545 D
C43    C44     1.425   .     S
C44    C56     1.419   .     S
C44    C58     1.425   .     D
C45    C46     1.426   .     D
C46    C58     1.418   .     S
C46    C60     1.443   .     S
C47    C48     1.383   .     D
C47    Ni99    2.740   .     S
C48    C60     1.365   .     S
C48    Ni97    1.506   .     S
C48    Ni98    2.870   .     S
C48    Ni99    2.905   .     S
C49    Ni99    2.916   .     S
C50    C51     1.500   .     D
C51    C63     1.279   .     S
C51    C65     1.462   .     S
C52    C53     1.494   .     S
C53    C65     1.397   .     S
C53    C67     1.407   .     D
C54    C55     1.486   .     S
C55    C56     1.412   1_565 D
C55    C67     1.409   .     S
C56    C55     1.412   1_545 D
C56    C57     1.418   .     S
C57    C69     1.419   .     S
C57    C71     1.414   .     D
C58    C59     1.420   .     S
C59    C71     1.415   .     S
C59    C73     1.419   .     D
C60    C61     1.381   .     D
C60    Ni98    2.956   .     S
C61    C73     1.456   .     S
C61    C75     1.393   .     S
C62    C75     1.258   .     S
C62    C77     1.309   .     D
C62    Ni97    1.940   .     S
C62    Ni98    3.022   .     S
C62    Ni100   2.542   .     S
C63    C64     1.336   .     S
C63    Ni100   2.275   .     S
C64    C77     1.451   .     S
C64    C79     1.539   .     S
C64    Ni100   2.156   .     S
C64    O101    2.608   .     S
C65    C66     1.416   .     D
C66    C79     1.429   .     S
C66    C81     1.404   .     S
C67    C68     1.416   .     S
C68    C69     1.411   1_565 D
C68    C81     1.418   .     S
C69    C68     1.411   1_545 D
C69    C70     1.414   .     S
C70    C83     1.422   .     S
C70    C85     1.416   .     D
C71    C72     1.414   .     S
C72    C85     1.422   .     S
C72    C87     1.419   .     D
C73    C74     1.420   .     S
C74    C87     1.422   .     S
C74    C89     1.423   .     D
C75    C76     1.537   .     D
C75    Ni98    2.783   .     S
C76    C89     1.422   .     S
C76    C91     1.422   .     S
C77    C78     1.408   .     S
C77    Ni100   2.515   .     S
C78    C91     1.414   .     S
C78    C93     1.421   .     D
C79    C80     1.415   .     D
C80    C93     1.424   .     S
C80    C95     1.420   .     S
C81    C82     1.410   .     D
C82    C83     1.415   1_565 S
C82    C95     1.424   .     S
C83    C82     1.415   1_545 S
C83    C84     1.413   .     D
C84    C1      1.423   1_655 S
C84    C3      1.416   1_655 S
C85    C86     1.412   .     S
C86    C5      1.417   1_655 D
C86    C3      1.423   1_655 S
C87    C88     1.414   .     S
C88    C7      1.417   1_655 D
C88    C5      1.420   1_655 S
C89    C90     1.426   .     S
C90    C9      1.422   1_655 D
C90    C7      1.418   1_655 S
C91    C92     1.418   .     D
C92    C11     1.423   1_655 S
C92    C9      1.415   1_655 S
C93    C94     1.418   .     S
C94    C11     1.418   1_655 D
C94    C13     1.422   1_655 S
C95    C96     1.415   .     D
C96    C1      1.419   1_665 S
C96    C13     1.419   1_655 S
Ni97   Ni98    2.596   .     S
Ni97   Ni99    2.671   .     S
Ni97   Ni100   1.919   .     S
Ni98   O103    1.774   .     S
Ni98   Ni99    2.163   .     S
Ni98   Ni100   2.176   .     S
Ni99   Ni100   2.405   .     S
Ni99   O102    1.797   .     S
Ni100  O101    1.729   .     S
O101   H105    0.998   .     S
O102   H104    1.104   .     S
O103   H106    0.995   .     S
