data_image0
_chemical_formula_structural       C72
_chemical_formula_sum              "C72"
_cell_length_a       14.76
_cell_length_b       14.76
_cell_length_c       15
_cell_angle_alpha    90
_cell_angle_beta     90
_cell_angle_gamma    120

_space_group_name_H-M_alt    "P 1"
_space_group_IT_number       1

loop_
  _space_group_symop_operation_xyz
  'x, y, z'

loop_
  _atom_site_type_symbol
  _atom_site_label
  _atom_site_symmetry_multiplicity
  _atom_site_fract_x
  _atom_site_fract_y
  _atom_site_fract_z
  _atom_site_occupancy
  C   C1        1.0  0.00000  0.00000  0.33333  1.0000
  C   C2        1.0  0.11111  0.05556  0.33333  1.0000
  C   C3        1.0  0.00000  0.16667  0.33333  1.0000
  C   C4        1.0  0.11111  0.22222  0.33333  1.0000
  C   C5        1.0  0.00000  0.33333  0.33333  1.0000
  C   C6        1.0  0.11111  0.38889  0.33333  1.0000
  C   C7        1.0  0.00000  0.50000  0.33333  1.0000
  C   C8        1.0  0.11111  0.55556  0.33333  1.0000
  C   C9        1.0  0.00000  0.66667  0.33333  1.0000
  C   C10       1.0  0.11111  0.72222  0.33333  1.0000
  C   C11       1.0  0.00000  0.83333  0.33333  1.0000
  C   C12       1.0  0.11111  0.88889  0.33333  1.0000
  C   C13       1.0  0.16667  0.00000  0.33333  1.0000
  C   C14       1.0  0.27778  0.05556  0.33333  1.0000
  C   C15       1.0  0.16667  0.16667  0.33333  1.0000
  C   C16       1.0  0.27778  0.22222  0.33333  1.0000
  C   C17       1.0  0.16667  0.33333  0.33333  1.0000
  C   C18       1.0  0.27778  0.38889  0.33333  1.0000
  C   C19       1.0  0.16667  0.50000  0.33333  1.0000
  C   C20       1.0  0.27778  0.55556  0.33333  1.0000
  C   C21       1.0  0.16667  0.66667  0.33333  1.0000
  C   C22       1.0  0.27778  0.72222  0.33333  1.0000
  C   C23       1.0  0.16667  0.83333  0.33333  1.0000
  C   C24       1.0  0.27778  0.88889  0.33333  1.0000
  C   C25       1.0  0.33333  0.00000  0.33333  1.0000
  C   C26       1.0  0.44444  0.05556  0.33333  1.0000
  C   C27       1.0  0.33333  0.16667  0.33333  1.0000
  C   C28       1.0  0.44444  0.22222  0.33333  1.0000
  C   C29       1.0  0.33333  0.33333  0.33333  1.0000
  C   C30       1.0  0.44444  0.38889  0.33333  1.0000
  C   C31       1.0  0.33333  0.50000  0.33333  1.0000
  C   C32       1.0  0.44444  0.55556  0.33333  1.0000
  C   C33       1.0  0.33333  0.66667  0.33333  1.0000
  C   C34       1.0  0.44444  0.72222  0.33333  1.0000
  C   C35       1.0  0.33333  0.83333  0.33333  1.0000
  C   C36       1.0  0.44444  0.88889  0.33333  1.0000
  C   C37       1.0  0.50000  0.00000  0.33333  1.0000
  C   C38       1.0  0.61111  0.05556  0.33333  1.0000
  C   C39       1.0  0.50000  0.16667  0.33333  1.0000
  C   C40       1.0  0.61111  0.22222  0.33333  1.0000
  C   C41       1.0  0.50000  0.33333  0.33333  1.0000
  C   C42       1.0  0.61111  0.38889  0.33333  1.0000
  C   C43       1.0  0.50000  0.50000  0.33333  1.0000
  C   C44       1.0  0.61111  0.55556  0.33333  1.0000
  C   C45       1.0  0.50000  0.66667  0.33333  1.0000
  C   C46       1.0  0.61111  0.72222  0.33333  1.0000
  C   C47       1.0  0.50000  0.83333  0.33333  1.0000
  C   C48       1.0  0.61111  0.88889  0.33333  1.0000
  C   C49       1.0  0.66667  0.00000  0.33333  1.0000
  C   C50       1.0  0.77778  0.05556  0.33333  1.0000
  C   C51       1.0  0.66667  0.16667  0.33333  1.0000
  C   C52       1.0  0.77778  0.22222  0.33333  1.0000
  C   C53       1.0  0.66667  0.33333  0.33333  1.0000
  C   C54       1.0  0.77778  0.38889  0.33333  1.0000
  C   C55       1.0  0.66667  0.50000  0.33333  1.0000
  C   C56       1.0  0.77778  0.55556  0.33333  1.0000
  C   C57       1.0  0.66667  0.66667  0.33333  1.0000
  C   C58       1.0  0.77778  0.72222  0.33333  1.0000
  C   C59       1.0  0.66667  0.83333  0.33333  1.0000
  C   C60       1.0  0.77778  0.88889  0.33333  1.0000
  C   C61       1.0  0.83333  0.00000  0.33333  1.0000
  C   C62       1.0  0.94444  0.05556  0.33333  1.0000
  C   C63       1.0  0.83333  0.16667  0.33333  1.0000
  C   C64       1.0  0.94444  0.22222  0.33333  1.0000
  C   C65       1.0  0.83333  0.33333  0.33333  1.0000
  C   C66       1.0  0.94444  0.38889  0.33333  1.0000
  C   C67       1.0  0.83333  0.50000  0.33333  1.0000
  C   C68       1.0  0.94444  0.55556  0.33333  1.0000
  C   C69       1.0  0.83333  0.66667  0.33333  1.0000
  C   C70       1.0  0.94444  0.72222  0.33333  1.0000
  C   C71       1.0  0.83333  0.83333  0.33333  1.0000
  C   C72       1.0  0.94444  0.88889  0.33333  1.0000
